data_image0
_cell_length_a       7.81
_cell_length_b       7.81
_cell_length_c       26.715
_cell_angle_alpha    90
_cell_angle_beta     90
_cell_angle_gamma    90

_symmetry_space_group_name_H-M    "P 1"
_symmetry_int_tables_number       1

loop_
  _symmetry_equiv_pos_as_xyz
  'x, y, z'

loop_
  _atom_site_label
  _atom_site_occupancy
  _atom_site_fract_x
  _atom_site_fract_y
  _atom_site_fract_z
  _atom_site_thermal_displace_type
  _atom_site_B_iso_or_equiv
  _atom_site_type_symbol
  Sr1      1.0000 0.25000  0.25000  0.07309  Biso   1.000  Sr
  Sr2      1.0000 0.75000  0.25000  0.07309  Biso   1.000  Sr
  Sr3      1.0000 0.25000  0.75000  0.07309  Biso   1.000  Sr
  Sr4      1.0000 0.75000  0.75000  0.07309  Biso   1.000  Sr
  Sr5      1.0000 0.25000  0.25000  0.21926  Biso   1.000  Sr
  Sr6      1.0000 0.75000  0.25000  0.21926  Biso   1.000  Sr
  Sr7      1.0000 0.25000  0.75000  0.21926  Biso   1.000  Sr
  Sr8      1.0000 0.75000  0.75000  0.21926  Biso   1.000  Sr
  Sr9      1.0000 0.25000  0.25000  0.36543  Biso   1.000  Sr
  Sr10     1.0000 0.75000  0.25000  0.36543  Biso   1.000  Sr
  Sr11     1.0000 0.25000  0.75000  0.36543  Biso   1.000  Sr
  Sr12     1.0000 0.75000  0.75000  0.36543  Biso   1.000  Sr
  Ti1      1.0000 0.00000  0.00000  0.00000  Biso   1.000  Ti
  Ti2      1.0000 0.50000  0.00000  0.00000  Biso   1.000  Ti
  Ti3      1.0000 0.00000  0.50000  0.00000  Biso   1.000  Ti
  Ti4      1.0000 0.50000  0.50000  0.00000  Biso   1.000  Ti
  Ti5      1.0000 0.00000  0.00000  0.43852  Biso   1.000  Ti
  Ti6      1.0000 0.50000  0.00000  0.43852  Biso   1.000  Ti
  Ti7      1.0000 0.00000  0.50000  0.43852  Biso   1.000  Ti
  Ti8      1.0000 0.50000  0.50000  0.43852  Biso   1.000  Ti
  Ti9      1.0000 0.00000  0.00000  0.14617  Biso   1.000  Ti
  Ti10     1.0000 0.50000  0.00000  0.14617  Biso   1.000  Ti
  Ti11     1.0000 0.00000  0.50000  0.14617  Biso   1.000  Ti
  Ti12     1.0000 0.50000  0.50000  0.14617  Biso   1.000  Ti
  Ti13     1.0000 0.00000  0.00000  0.29235  Biso   1.000  Ti
  Ti14     1.0000 0.50000  0.00000  0.29235  Biso   1.000  Ti
  Ti15     1.0000 0.00000  0.50000  0.29235  Biso   1.000  Ti
  Ti16     1.0000 0.50000  0.50000  0.29235  Biso   1.000  Ti
  O1       1.0000 0.25000  0.00000  0.00000  Biso   1.000  O
  O2       1.0000 0.00000  0.25000  0.00000  Biso   1.000  O
  O3       1.0000 0.25000  0.00000  0.43852  Biso   1.000  O
  O4       1.0000 0.00000  0.25000  0.43852  Biso   1.000  O
  O5       1.0000 0.00000  0.00000  0.07309  Biso   1.000  O
  O6       1.0000 0.75000  0.00000  0.00000  Biso   1.000  O
  O7       1.0000 0.50000  0.25000  0.00000  Biso   1.000  O
  O8       1.0000 0.75000  0.00000  0.43852  Biso   1.000  O
  O9       1.0000 0.50000  0.25000  0.43852  Biso   1.000  O
  O10      1.0000 0.50000  0.00000  0.07309  Biso   1.000  O
  O11      1.0000 0.25000  0.50000  0.00000  Biso   1.000  O
  O12      1.0000 0.00000  0.75000  0.00000  Biso   1.000  O
  O13      1.0000 0.25000  0.50000  0.43852  Biso   1.000  O
  O14      1.0000 0.00000  0.75000  0.43852  Biso   1.000  O
  O15      1.0000 0.00000  0.50000  0.07309  Biso   1.000  O
  O16      1.0000 0.75000  0.50000  0.00000  Biso   1.000  O
  O17      1.0000 0.50000  0.75000  0.00000  Biso   1.000  O
  O18      1.0000 0.75000  0.50000  0.43852  Biso   1.000  O
  O19      1.0000 0.50000  0.75000  0.43852  Biso   1.000  O
  O20      1.0000 0.50000  0.50000  0.07309  Biso   1.000  O
  O21      1.0000 0.25000  0.00000  0.14617  Biso   1.000  O
  O22      1.0000 0.00000  0.25000  0.14617  Biso   1.000  O
  O23      1.0000 0.00000  0.00000  0.21926  Biso   1.000  O
  O24      1.0000 0.75000  0.00000  0.14617  Biso   1.000  O
  O25      1.0000 0.50000  0.25000  0.14617  Biso   1.000  O
  O26      1.0000 0.50000  0.00000  0.21926  Biso   1.000  O
  O27      1.0000 0.25000  0.50000  0.14617  Biso   1.000  O
  O28      1.0000 0.00000  0.75000  0.14617  Biso   1.000  O
  O29      1.0000 0.00000  0.50000  0.21926  Biso   1.000  O
  O30      1.0000 0.75000  0.50000  0.14617  Biso   1.000  O
  O31      1.0000 0.50000  0.75000  0.14617  Biso   1.000  O
  O32      1.0000 0.50000  0.50000  0.21926  Biso   1.000  O
  O33      1.0000 0.25000  0.00000  0.29235  Biso   1.000  O
  O34      1.0000 0.00000  0.25000  0.29235  Biso   1.000  O
  O35      1.0000 0.00000  0.00000  0.36543  Biso   1.000  O
  O36      1.0000 0.75000  0.00000  0.29235  Biso   1.000  O
  O37      1.0000 0.25000  0.50000  0.29235  Biso   1.000  O
  O38      1.0000 0.50000  0.00000  0.36543  Biso   1.000  O
  O39      1.0000 0.00000  0.75000  0.29235  Biso   1.000  O
  O40      1.0000 0.00000  0.50000  0.36543  Biso   1.000  O
  O41      1.0000 0.75000  0.50000  0.29235  Biso   1.000  O
  O42      1.0000 0.50000  0.75000  0.29235  Biso   1.000  O
  Fe1      1.0000 0.24139  0.24139  0.66457  Biso   1.000  Fe
  Fe2      1.0000 0.24139  0.72417  0.66457  Biso   1.000  Fe
  Fe3      1.0000 0.72417  0.24139  0.66457  Biso   1.000  Fe
  Fe4      1.0000 0.72417  0.72417  0.66457  Biso   1.000  Fe
  Fe5      1.0000 0.00000  0.00000  0.66457  Biso   1.000  Fe
  Fe6      1.0000 0.00000  0.48278  0.66457  Biso   1.000  Fe
  Fe7      1.0000 0.48278  0.00000  0.66457  Biso   1.000  Fe
  Fe8      1.0000 0.48278  0.48278  0.66457  Biso   1.000  Fe
  Se1      1.0000 0.24139  0.00000  0.71954  Biso   1.000  Se
  Se2      1.0000 0.24139  0.48278  0.71954  Biso   1.000  Se
  Se3      1.0000 0.72417  0.00000  0.71954  Biso   1.000  Se
  Se4      1.0000 0.72417  0.48278  0.71954  Biso   1.000  Se
  Se5      1.0000 0.00000  0.24139  0.60960  Biso   1.000  Se
  Se6      1.0000 0.00000  0.72417  0.60960  Biso   1.000  Se
  Se7      1.0000 0.48278  0.24139  0.60960  Biso   1.000  Se
  Se8      1.0000 0.48278  0.72417  0.60960  Biso   1.000  Se
